Circuit: * H:\Desktop\Classes\STC209\FinalProject\LED_Driver.asc

Limiting rise time of source v1 to 0.1
Limiting fall time of source v1 to 0.1
Direct Newton iteration for .op point succeeded.

Date: Fri Apr 15 19:56:13 2016
Total elapsed time: 0.059 seconds.

tnom = 27
temp = 27
method = modified trap
totiter = 4125
traniter = 4098
tranpoints = 1638
accept = 1451
rejected = 187
matrix size = 17
fillins = 2
solver = Normal
Matrix Compiler1: 1.07 KB object code size  0.5/0.2/[0.2]
Matrix Compiler2: off  [0.2]/0.2/0.3


